cases/transmission/event_cases/case2383wp-cascading-total-outage.m
function mpc = case2383wp
%CASE2383WP  Power flow data for Polish system - winter 1999-2000 peak.
%   Please see CASEFORMAT for details on the case file format.
%
%   This case represents the Polish 400, 220 and 110 kV networks during
%   winter 1999-2000 peak conditions. It is part of the 7500+ bus
%   Europen UCTE system. To decrease the number of buses, the tie lines
%   to foreign networks were replaced by artificial load or generator
%   buses (180-186). Multiple generators at a bus have been aggregated.
%   Generators that are not centrally dispatchable in the Polish energy
%   market are given a cost of zero.
%
%   This data was graciously provided by, and is distributed with the
%   permission of, Roman Korab <roman.korab@polsl.pl>.
%
%   SCENARIO D — Cascading failure to total grid outage.
%   Stage 1: bus 6 (400 kV) trips adjacent lines.
%   Stage 2: southwest/southeast corridors trip (scenario B).
%   Stage 3: central 400 kV link 34-51 trips (scenario A).
%   Stage 4: north 400 kV backbone and ring segments trip.
%   Stage 5: border import ties (buses 180-186) trip.
%   All bus voltages set to Vm=0, Va=0 (post-blackout snapshot).
%   PF on this case is expected to be LOCALLY_INFEASIBLE.
%
%   Opened branches:
%     5-6
%     6-8
%     6-9
%     15-6
%     31-6
%     310-6
%     2313-2381
%     836-60
%     1476-1168
%     414-240
%     34-51
%     114-131
%     138-137
%     8-18
%     18-15
%     106-180
%     105-185
%     181-55
%     183-34
%     183-35
%     182-133
%     182-134
%     184-61
%     186-125
%     186-126

%   MATPOWER

%% MATPOWER Case Format : Version 2
mpc.version = '2';

%%-----  Power Flow Data  -----%%
%% system MVA base
mpc.baseMVA = 100;

%% bus data
%	bus_i	type	Pd	Qd	Gs	Bs	area	Vm	Va	baseKV	zone	Vmax	Vmin
mpc.bus = [
	1	1	0	0	0	0	1	0	0	220	1	1.11	0.95;
	2	1	0	0	0	0	1	0	0	220	1	1.11	0.95;
	3	1	0	0	0	0	1	0	0	220	1	1.11	0.95;
	4	1	0	0	0	0	1	0	0	220	1	1.11	0.95;
	5	1	0	0	0	0	1	0	0	220	1	1.11	0.95;
	6	1	0	0	0	0	1	0	0	400	1	1.05	0.95;
	7	1	0	0	0	0	1	0	0	220	1	1.11	0.95;
	8	1	0	0	0	0	1	0	0	400	1	1.05	0.95;
	9	1	0	0	0	0	1	0	0	400	1	1.05	0.95;
	10	2	12.23	9	0	0	1	0	0	220	1	1.11	0.95;
	11	1	0	0	0	0	1	0	0	220	1	1.11	0.95;
	12	1	0	0	0	0	1	0	0	220	1	1.11	0.95;
	13	1	0	0	0	0	1	0	0	220	1	1.11	0.95;
	14	1	0	0	0	0	1	0	0	220	1	1.11	0.95;
	15	1	0	0	0	0	1	0	0	400	1	1.05	0.95;
	16	2	54.88	100	0	0	1	0	0	220	1	1.11	0.95;
	17	2	77	150	0	0	1	0	0	220	1	1.11	0.95;
	18	3	153	350	0	0	1	0	0	400	1	1.05	0.95;
	19	1	0	0	0	0	1	0	0	220	1	1.11	0.95;
	20	1	0	0	0	0	1	0	0	400	1	1.05	0.95;
	21	1	0	0	0	0	1	0	0	220	1	1.11	0.95;
	22	1	0	0	0	0	1	0	0	220	1	1.11	0.95;
	23	1	0	0	0	0	1	0	0	220	2	1.11	0.95;
	24	1	0	0	0	0	1	0	0	220	2	1.11	0.95;
	25	1	0	0	0	0	1	0	0	220	2	1.11	0.95;
	26	1	0	0	0	0	1	0	0	220	2	1.11	0.95;
	27	1	0	0	0	0	1	0	0	220	2	1.11	0.95;
	28	1	0	0	0	0	1	0	0	220	2	1.11	0.95;
	29	2	25.98	60	0	0	1	0	0	220	2	1.11	0.95;
	30	2	25.98	60	0	0	1	0	0	220	2	1.11	0.95;
	31	2	20.98	50	0	0	1	0	0	400	2	1.05	0.95;
	32	1	0	0	0	0	1	0	0	400	2	1.05	0.95;
	33	1	0	0	0	0	1	0	0	220	2	1.11	0.95;
	34	1	0	0	0	0	1	0	0	400	2	1.05	0.95;
	35	1	0	0	0	0	1	0	0	400	2	1.05	0.95;
	36	1	0	0	0	0	1	0	0	400	2	1.05	0.95;
	37	1	0	0	0	0	1	0	0	220	2	1.11	0.95;
	38	1	0	0	0	0	1	0	0	220	2	1.11	0.95;
	39	1	0	0	0	0	1	0	0	400	2	1.05	0.95;
	40	1	0	0	0	0	1	0	0	400	2	1.05	0.95;
	41	2	11.99	30	0	0	1	0	0	220	2	1.11	0.95;
	42	2	11.99	30	0	0	1	0	0	220	2	1.11	0.95;
	43	2	23.98	60	0	0	1	0	0	400	2	1.05	0.95;
	44	2	23.98	60	0	0	1	0	0	400	2	1.05	0.95;
	45	2	159.84	75	0	0	1	0	0	220	2	1.11	0.95;
	46	1	0	0	0	0	1	0	0	220	2	1.11	0.95;
	47	1	0	0	0	0	1	0	0	220	2	1.11	0.95;
	48	1	0	0	0	0	1	0	0	220	2	1.11	0.95;
	49	1	0	0	0	0	1	0	0	220	2	1.11	0.95;
	50	1	0	0	0	0	1	0	0	400	2	1.05	0.95;
	51	1	0	0	0	0	1	0	0	400	2	1.05	0.95;
	52	1	0	0	0	0	1	0	0	220	2	1.11	0.95;
	53	1	0	0	0	0	1	0	0	220	2	1.11	0.95;
	54	1	0	0	0	0	1	0	0	220	2	1.11	0.95;
	55	1	0	0	0	0	1	0	0	220	2	1.11	0.95;
	56	1	0	0	0	0	1	0	0	220	3	1.11	0.95;
	57	1	22.98	10.96	0	0	1	0	0	220	3	1.11	0.95;
	58	1	21.98	5.79	0	0	1	0	0	220	3	1.11	0.95;
	59	1	0	0	0	0	1	0	0	220	3	1.11	0.95;
	60	1	0	0	0	0	1	0	0	220	3	1.11	0.95;
	61	1	0	0	0	0	1	0	0	220	3	1.11	0.95;
	62	1	0	0	0	0	1	0	0	220	3	1.11	0.95;
	63	2	37.37	52.69	0	0	1	0	0	220	3	1.11	0.95;
	64	2	35.37	55.32	0	0	1	0	0	220	3	1.11	0.95;
	65	1	13.39	2.02	0	0	1	0	0	220	3	1.11	0.95;
	66	1	0	0	0	0	1	0	0	220	3	1.11	0.95;
	67	2	60.4	92.1	0	0	1	0	0	400	3	1.05	0.95;
	68	1	0	0	0	0	1	0	0	220	3	1.11	0.95;
	69	1	0	0	0	0	1	0	0	220	3	1.11	0.95;
	70	1	0	0	0	0	1	0	0	220	3	1.11	0.95;
	71	1	0	0	0	0	1	0	0	220	3	1.11	0.95;
	72	1	0	0	0	0	1	0	0	220	3	1.11	0.95;
	73	1	0	0	0	0	1	0	0	220	3	1.11	0.95;
	74	1	0	0	0	0	1	0	0	220	3	1.11	0.95;
	75	1	0	0	0	0	1	0	0	400	3	1.05	0.95;
	76	1	0	0	0	0	1	0	0	400	3	1.05	0.95;
	77	1	0	0	0	0	1	0	0	220	3	1.11	0.95;
	78	1	0	0	0	0	1	0	0	220	3	1.11	0.95;
	79	1	0	0	0	0	1	0	0	220	3	1.11	0.95;
	80	1	0	0	0	0	1	0	0	220	3	1.11	0.95;
	81	1	0	0	0	0	1	0	0	220	3	1.11	0.95;
	82	1	0	0	0	0	1	0	0	220	3	1.11	0.95;
	83	2	15.99	22.97	0	0	1	0	0	220	3	1.11	0.95;
	84	2	15.79	22.27	0	0	1	0	0	220	3	1.11	0.95;
	85	2	9.99	17.01	0	0	1	0	0	220	3	1.11	0.95;
	86	2	9.99	16.66	0	0	1	0	0	220	3	1.11	0.95;
	87	1	11.09	16.22	0	0	1	0	0	220	3	1.11	0.95;
	88	1	0	0	0	0	1	0	0	220	3	1.11	0.95;
	89	1	0	0	0	0	1	0	0	220	3	1.11	0.95;
	90	1	0	0	0	0	1	0	0	220	3	1.11	0.95;
	91	1	0	0	0	0	1	0	0	220	3	1.11	0.95;
	92	1	0	0	0	0	1	0	0	400	3	1.05	0.95;
	93	2	9.99	16.39	0	0	1	0	0	220	3	1.11	0.95;
	94	1	0	0	0	0	1	0	0	220	3	1.11	0.95;
	95	2	6.89	8.15	0	0	1	0	0	220	3	1.11	0.95;
	96	1	0	0	0	0	1	0	0	220	3	1.11	0.95;
	97	2	8.69	5.26	0	0	1	0	0	220	3	1.11	0.95;
	98	1	0	0	0	0	1	0	0	400	3	1.05	0.95;
	99	1	0	0	0	0	1	0	0	400	3	1.05	0.95;
	100	1	0	0	0	0	1	0	0	400	3	1.05	0.95;
	101	1	0	0	0	0	1	0	0	400	3	1.05	0.95;
	102	1	0	0	0	0	1	0	0	220	3	1.11	0.95;
	103	2	18.09	23.76	0	0	1	0	0	220	3	1.11	0.95;
	104	2	33.68	46.11	0	0	1	0	0	220	3	1.11	0.95;
	105	2	33.78	62.95	0	0	1	0	0	400	3	1.05	0.95;
	106	1	0	0	0	0	1	0	0	400	3	1.05	0.95;
	107	1	0	0	0	0	1	0	0	220	3	1.11	0.95;
	108	1	0	0	0	0	1	0	0	220	3	1.11	0.95;
	109	2	1	22.36	0	0	1	0	0	220	3	1.11	0.95;
	110	2	1	22.18	0	0	1	0	0	220	3	1.11	0.95;
	111	2	26.49	18	0	0	1	0	0	220	4	1.11	0.95;
	112	1	0	0	0	0	1	0	0	220	4	1.11	0.95;
	113	1	0	0	0	0	1	0	0	220	4	1.11	0.95;
	114	1	0	0	0	0	1	0	0	220	4	1.11	0.95;
	115	1	0	0	0	0	1	0	0	400	4	1.05	0.95;
	116	1	0	0	0	0	1	0	0	400	4	1.05	0.95;
	117	1	0	0	0	0	1	0	0	220	4	1.11	0.95;
	118	1	0	0	0	0	1	0	0	220	4	1.11	0.95;
	119	1	0	0	0	0	1	0	0	220	4	1.11	0.95;
	120	1	0	0	0	0	1	0	0	220	4	1.11	0.95;
	121	1	0	0	0	0	1	0	0	220	4	1.11	0.95;
	122	1	0	0	0	0	1	0	0	220	4	1.11	0.95;
	123	2	5.5	7	0	0	1	0	0	220	4	1.11	0.95;
	124	2	8.79	17	0	0	1	0	0	220	4	1.11	0.95;
	125	2	35.7	18.3	0	0	1	0	0	220	4	1.11	0.95;
	126	1	25.28	15.9	0	0	1	0	0	220	4	1.11	0.95;
	127	2	25.71	15.3	0	0	1	0	0	400	4	1.05	0.95;
	128	1	0	0	0	0	1	0	0	400	4	1.05	0.95;
	129	1	0	0	0	0	1	0	0	220	4	1.11	0.95;
	130	1	0	0	0	0	1	0	0	220	4	1.11	0.95;
	131	2	68.67	70	0	0	1	0	0	220	4	1.11	0.95;
	132	2	33	45	0	0	1	0	0	220	4	1.11	0.95;
	133	1	0	0	0	0	1	0	0	400	4	1.05	0.95;
	134	1	0	0	0	0	1	0	0	400	4	1.05	0.95;
	135	1	0	0	0	0	1	0	0	220	4	1.11	0.95;
	136	1	0	0	0	0	1	0	0	220	4	1.11	0.95;
	137	1	0	0	0	0	1	0	0	400	4	1.05	0.95;
	138	1	0	0	0	0	1	0	0	400	4	1.05	0.95;
	139	2	33.2	22.6	0	0	1	0	0	220	4	1.11	0.95;
	140	2	29.23	19.6	0	0	1	0	0	220	4	1.11	0.95;
	141	1	0	0	0	0	1	0	0	220	4	1.11	0.95;
	142	1	0	0	0	0	1	0	0	220	4	1.11	0.95;
	143	1	0	0	0	0	1	0	0	220	4	1.11	0.95;
	144	1	0	0	0	0	1	0	0	220	4	1.11	0.95;
	145	1	0	0	0	0	1	0	0	400	4	1.05	0.95;
	146	1	0	0	0	0	1	0	0	400	4	1.05	0.95;
	147	1	0	0	0	0	1	0	0	220	4	1.11	0.95;
	148	1	0	0	0	0	1	0	0	220	4	1.11	0.95;
	149	1	0	0	0	0	1	0	0	220	4	1.11	0.95;
	150	1	0	0	0	0	1	0	0	220	4	1.11	0.95;
	151	1	0	0	0	0	1	0	0	220	4	1.11	0.95;
	152	1	0	0	0	0	1	0	0	220	4	1.11	0.95;
	153	1	0	0	0	0	1	0	0	220	4	1.11	0.95;
	154	1	0	0	0	0	1	0	0	220	4	1.11	0.95;
	155	1	0	0	0	0	1	0	0	220	5	1.11	0.95;
	156	1	0	0	0	0	1	0	0	220	5	1.11	0.95;
	157	1	0	0	0	0	1	0	0	400	5	1.05	0.95;
	158	1	0	0	0	0	1	0	0	400	5	1.05	0.95;
	159	1	0	0	0	0	1	0	0	400	5	1.05	0.95;
	160	1	0	0	0	0	1	0	0	400	5	1.05	0.95;
	161	1	0	0	0	0	1	0	0	220	5	1.11	0.95;
	162	1	0	0	0	0	1	0	0	220	5	1.11	0.95;
	163	1	0	0	0	0	1	0	0	220	5	1.11	0.95;
	164	1	0	0	0	0	1	0	0	220	5	1.11	0.95;
	165	1	0	0	0	0	1	0	0	400	5	1.05	0.95;
	166	1	0	0	0	0	1	0	0	220	5	1.11	0.95;
	167	1	0	0	0	0	1	0	0	220	5	1.11	0.95;
	168	1	0	0	0	0	1	0	0	400	5	1.05	0.95;
	169	1	0	0	0	0	1	0	0	400	5	1.05	0.95;
	170	1	0	0	0	0	1	0	0	220	5	1.11	0.95;
	171	1	0	0	0	0	1	0	0	220	5	1.11	0.95;
	172	1	0	0	0	0	1	0	0	220	5	1.11	0.95;
	173	1	0	0	0	0	1	0	0	220	5	1.11	0.95;
	174	1	0	0	0	0	1	0	0	220	5	1.11	0.95;
	175	1	0	0	0	0	1	0	0	220	5	1.11	0.95;
	176	2	0	40	0	0	1	0	0	400	5	1.05	0.95;
	177	2	0	40	0	0	1	0	0	400	5	1.05	0.95;
	178	1	0	0	0	0	1	0	0	220	5	1.11	0.95;
	179	1	0	0	0	0	1	0	0	220	5	1.11	0.95;
	180	2	339.85	49.6	0	0	2	0	0	400	6	1.05	0.95;
	181	2	0	0	0	0	3	0	0	220	6	1.11	0.95;
	182	2	0	0	0	0	5	0	0	400	6	1.05	0.95;
	183	1	150	0	0	0	3	0	0	400	6	1.05	0.95;
	184	2	317.34	50.3	0	0	2	0	0	220	6	1.11	0.95;
	185	2	362.43	36.7	0	0	2	0	0	400	6	1.05	0.95;
	186	2	33.33	1	0	0	5	0	0	220	6	1.11	0.95;
	187	1	7.12	1.5	0	0	1	0	0	110	1	1.12	0.95;
	188	1	7.63	1	0	0	1	0	0	110	1	1.12	0.95;
	189	1	9.77	8.7	0	0	1	0	0	110	1	1.12	0.95;
	190	1	6.12	1.5	0	0	1	0	0	110	1	1.12	0.95;
	191	1	6.12	1.6	0	0	1	0	0	110	1	1.12	0.95;
	192	2	30.56	12	0	0	1	0	0	110	1	1.12	0.95;
	193	1	15.28	3	0	0	1	0	0	110	1	1.12	0.95;
	194	1	0	0	0	0	1	0	0	110	1	1.12	0.95;
	195	1	8.14	2	0	0	1	0	0	110	1	1.12	0.95;
	196	2	6.92	1.5	0	0	1	0	0	110	1	1.12	0.95;
	197	1	6.92	1.5	0	0	1	0	0	110	1	1.12	0.95;
	198	2	12.32	1.7	0	0	1	0	0	110	1	1.12	0.95;
	199	1	1.43	0.5	0	0	1	0	0	110	1	1.12	0.95;
	200	1	1.08	0.5	0	0	1	0	0	110	1	1.12	0.95;
...
];

%% generator data
%	bus	Pg	Qg	Qmax	Qmin	Vg	mBase	status	Pmax	Pmin	Pc1	Pc2	Qc1min	Qc1max	Qc2min	Qc2max	ramp_agc	ramp_10	ramp_30	ramp_q	apf
mpc.gen = [
	10	400	120	120	0	1	168	1	400	70	0	0	0	0	0	0	0	0	0	0	0;
	16	720	160.532	440	-40	1	823	1	720	120	0	0	0	0	0	0	0	0	0	0	0;
	17	1080	212.82	660	-60	1	1234	1	1080	120	0	0	0	0	0	0	0	0	0	0	0;
	18	2520	160.59	1540	-140	1	2879	1	2520	120	0	0	0	0	0	0	0	0	0	0	0;
	29	70	240	240	0	1	511	1	400	70	0	0	0	0	0	0	0	0	0	0	0;
	30	70	129.949	240	0	1	511	1	800	70	0	0	0	0	0	0	0	0	0	0	0;
	31	1000	0	350	0	1	420	1	1000	150	0	0	0	0	0	0	0	0	0	0	0;
	41	200	0	120	0	1	241	1	200	70	0	0	0	0	0	0	0	0	0	0	0;
	42	70	0	120	0	1	241	1	410	70	0	0	0	0	0	0	0	0	0	0	0;
	43	410	0	240	0	1	482	1	410	70	0	0	0	0	0	0	0	0	0	0	0;
	44	410	0	240	0	1	482	1	410	70	0	0	0	0	0	0	0	0	0	0	0;
	45	42.2	21	21	0	1	49	1	42.2	39.14	0	0	0	0	0	0	0	0	0	0	0;
	63	650	103.63	302	0	1	473	1	650	145	0	0	0	0	0	0	0	0	0	0	0;
	64	450	78.8702	311	2	1	475	1	450	145	0	0	0	0	0	0	0	0	0	0	0;
	67	750	413.726	449	0	1	864	1	750	220	0	0	0	0	0	0	0	0	0	0	0;
	83	225	-89	190	-89	1	239	1	225	140	0	0	0	0	0	0	0	0	0	0	0;
	84	225	167.231	190	-89	1	251	1	225	140	0	0	0	0	0	0	0	0	0	0	0;
	85	120	119.623	125	-50	1	133	1	120	40	0	0	0	0	0	0	0	0	0	0	0;
	86	120	-6.01871	125	-50	1	133	1	120	40	0	0	0	0	0	0	0	0	0	0	0;
	93	120	50.5085	90	5	1	123	1	120	80	0	0	0	0	0	0	0	0	0	0	0;
	95	110	27	68	27	1	105	1	110	50	0	0	0	0	0	0	0	0	0	0	0;
	97	87.6	41.8528	68	27	1	105	1	87.6	83.26	0	0	0	0	0	0	0	0	0	0	0;
	103	160	68.7599	177	-82	1	239	1	400	160	0	0	0	0	0	0	0	0	0	0	0;
	104	225	97.3097	379	-177	1	490	1	225	140	0	0	0	0	0	0	0	0	0	0	0;
	105	430	-165	353	-165	1	502	1	430	160	0	0	0	0	0	0	0	0	0	0	0;
	109	250	17.6233	65	0	1	277	1	250	80	0	0	0	0	0	0	0	0	0	0	0;
	110	250	17.7852	65	0	1	280	1	250	80	0	0	0	0	0	0	0	0	0	0	0;
	111	360	126.446	270	0	1	401	1	360	40	0	0	0	0	0	0	0	0	0	0	0;
	123	20	40	40	0	1	98	1	110	20	0	0	0	0	0	0	0	0	0	0	0;
	124	125	90	90	0	1	132	1	125	45	0	0	0	0	0	0	0	0	0	0	0;
	125	70	360	360	0	1	654	1	860	70	0	0	0	0	0	0	0	0	0	0	0;
	127	690	0	360	0	1	540	1	690	70	0	0	0	0	0	0	0	0	0	0	0;
	131	645.377	52.6305	360	0	1	696	1	1060	70	0	0	0	0	0	0	0	0	0	0	0;
	132	70	286.7	480	0	1	732	1	600	70	0	0	0	0	0	0	0	0	0	0	0;
	139	408.67	147.319	360	0	1	714	1	600	70	0	0	0	0	0	0	0	0	0	0	0;
	140	200	120	120	0	1	240	1	200	70	0	0	0	0	0	0	0	0	0	0	0;
	176	600	-120	220	-120	1	430	1	600	70	0	0	0	0	0	0	0	0	0	0	0;
	177	200	201.005	220	-120	1	430	1	200	70	0	0	0	0	0	0	0	0	0	0	0;
	180	0	16.8544	99999	-99999	1	7485	1	0	0	0	0	0	0	0	0	0	0	0	0	0;
	181	175	26.1506	99999	-99999	1	210	1	175	174	0	0	0	0	0	0	0	0	0	0	0;
	182	307.59	48.5395	99999	-99999	1	13465	1	307.59	306	0	0	0	0	0	0	0	0	0	0	0;
	184	0	69.5787	99999	-99999	1	8353	1	0	0	0	0	0	0	0	0	0	0	0	0	0;
	185	0	12.233	99999	-99999	1	14254	1	0	0	0	0	0	0	0	0	0	0	0	0	0;
	186	0	32.0974	99999	-99999	1	7401	1	0	0	0	0	0	0	0	0	0	0	0	0	0;
	192	95	28.3494	50	0	1	114	1	95	90.25	0	0	0	0	0	0	0	0	0	0	0;
	196	0.9	1	1	0	1	1	1	0.9	0.86	0	0	0	0	0	0	0	0	0	0	0;
	198	0.8	1	1	0	1	1	1	0.8	0.76	0	0	0	0	0	0	0	0	0	0	0;
	205	15	6.20319	10	0	1	18	1	15	14.25	0	0	0	0	0	0	0	0	0	0	0;
	213	11	8	8	0	1	13	1	11	10.45	0	0	0	0	0	0	0	0	0	0	0;
	264	2.5	2	2	0	1	3	1	2.5	2.38	0	0	0	0	0	0	0	0	0	0	0;
	269	6	5	5	0	1	7	1	6	5.7	0	0	0	0	0	0	0	0	0	0	0;
	277	70	40.2687	42	0	1	84	1	70	66.5	0	0	0	0	0	0	0	0	0	0	0;
	278	60	12.5429	40	0	1	72	1	60	57	0	0	0	0	0	0	0	0	0	0	0;
	279	60	17.8785	40	0	1	72	1	60	57	0	0	0	0	0	0	0	0	0	0	0;
	281	120	34.0803	90	0	1	144	1	120	114	0	0	0	0	0	0	0	0	0	0	0;
	282	40	16.9838	40	0	1	48	1	40	38	0	0	0	0	0	0	0	0	0	0	0;
	289	2.5	3	3	0	1	3	1	2.5	2.38	0	0	0	0	0	0	0	0	0	0	0;
	294	2	1	1	0	1	2	1	2	1.9	0	0	0	0	0	0	0	0	0	0	0;
	314	1.5	1	1	0	1	2	1	1.5	1.43	0	0	0	0	0	0	0	0	0	0	0;
	328	44	19.2819	21	0	1	53	1	44	41.8	0	0	0	0	0	0	0	0	0	0	0;
	329	44	21	21	0	1	53	1	44	41.8	0	0	0	0	0	0	0	0	0	0	0;
	330	44	0	21	0	1	53	1	44	41.8	0	0	0	0	0	0	0	0	0	0	0;
	331	43	21	21	0	1	52	1	43	40.85	0	0	0	0	0	0	0	0	0	0	0;
	334	1.5	1	1	0	1	2	1	1.5	1.43	0	0	0	0	0	0	0	0	0	0	0;
	346	200	25.128	120	0	1	180	1	200	70	0	0	0	0	0	0	0	0	0	0	0;
	347	10	9.77566	15	0	1	12	1	10	10	0	0	0	0	0	0	0	0	0	0	0;
	359	1.5	1	1	0	1	2	1	1.5	1.43	0	0	0	0	0	0	0	0	0	0	0;
	365	5.1	3	3	0	1	6	1	5.1	4.85	0	0	0	0	0	0	0	0	0	0	0;
	382	8	5	5	0	1	10	1	8	7.6	0	0	0	0	0	0	0	0	0	0	0;
	383	8	5	5	0	1	10	1	8	7.6	0	0	0	0	0	0	0	0	0	0	0;
	385	6	4	4	0	1	7	1	6	5.7	0	0	0	0	0	0	0	0	0	0	0;
	390	4.5	3	3	0	1	5	1	4.5	4.28	0	0	0	0	0	0	0	0	0	0	0;
	395	10	5.15536	8	0	1	12	1	10	9.5	0	0	0	0	0	0	0	0	0	0	0;
	404	3	3	3	0	1	4	1	3	2.85	0	0	0	0	0	0	0	0	0	0	0;
	426	3.2	2	2	0	1	4	1	3.2	3.04	0	0	0	0	0	0	0	0	0	0	0;
	444	1	0	1	0	1	1	1	1	0.95	0	0	0	0	0	0	0	0	0	0	0;
	451	4.5	3	3	0	1	5	1	4.5	4.28	0	0	0	0	0	0	0	0	0	0	0;
	482	1	0	1	0	1	1	1	1	0.95	0	0	0	0	0	0	0	0	0	0	0;
	492	2	1	1	0	1	2	1	2	1.9	0	0	0	0	0	0	0	0	0	0	0;
	493	234	108.562	130	0	1	281	1	234	222.3	0	0	0	0	0	0	0	0	0	0	0;
	494	234	130	130	0	1	281	1	234	222.3	0	0	0	0	0	0	0	0	0	0	0;
	514	115	90	90	0	1	138	1	115	109.25	0	0	0	0	0	0	0	0	0	0	0;
	515	115	90	90	0	1	138	1	115	109.25	0	0	0	0	0	0	0	0	0	0	0;
	525	6	4	4	0	1	7	1	6	5.7	0	0	0	0	0	0	0	0	0	0	0;
	536	6	6	6	0	1	7	1	6	5.7	0	0	0	0	0	0	0	0	0	0	0;
	537	3.5	3	3	0	1	4	1	3.5	3.33	0	0	0	0	0	0	0	0	0	0	0;
	556	2.7	1	1	0	1	3	1	2.7	2.57	0	0	0	0	0	0	0	0	0	0	0;
	580	1.6	1	1	0	1	2	1	1.6	1.52	0	0	0	0	0	0	0	0	0	0	0;
	584	2.7	2	2	0	1	3	1	2.7	2.57	0	0	0	0	0	0	0	0	0	0	0;
	585	4	2	2	0	1	5	1	4	3.8	0	0	0	0	0	0	0	0	0	0	0;
	607	0.8	0	0	0	1	1	1	0.8	0.76	0	0	0	0	0	0	0	0	0	0	0;
	612	152.955	70.2917	120	0	1	256	1	200	70	0	0	0	0	0	0	0	0	0	0	0;
	613	200	94.9498	120	0	1	256	1	200	70	0	0	0	0	0	0	0	0	0	0	0;
	615	1.4	1	1	0	1	2	1	1.4	1.33	0	0	0	0	0	0	0	0	0	0	0;
	623	7.6	5	5	0	1	9	1	7.6	7.22	0	0	0	0	0	0	0	0	0	0	0;
	639	9.6	4	4	0	1	12	1	9.6	9.12	0	0	0	0	0	0	0	0	0	0	0;
	651	4.7	2	2	0	1	6	1	4.7	4.47	0	0	0	0	0	0	0	0	0	0	0;
	654	1.4	0	1	0	1	2	1	1.4	1.33	0	0	0	0	0	0	0	0	0	0	0;
	664	6.2	6	6	0	1	7	1	6.2	5.89	0	0	0	0	0	0	0	0	0	0	0;
	670	2.7	0	2	0	1	3	1	2.7	2.57	0	0	0	0	0	0	0	0	0	0	0;
	674	1	0	0	0	1	1	1	1	0.95	0	0	0	0	0	0	0	0	0	0	0;
	688	70	18.0507	120	0	1	242	1	202	70	0	0	0	0	0	0	0	0	0	0	0;
	692	1.4	1	1	0	1	2	1	1.4	1.33	0	0	0	0	0	0	0	0	0	0	0;
	699	3.8	0	2	0	1	5	1	3.8	3.61	0	0	0	0	0	0	0	0	0	0	0;
	712	1.2	1	1	0	1	1	1	1.2	1.14	0	0	0	0	0	0	0	0	0	0	0;
	730	6.9	0	3	0	1	8	1	6.9	6.56	0	0	0	0	0	0	0	0	0	0	0;
	732	1.1	0	1	0	1	1	1	1.1	1.05	0	0	0	0	0	0	0	0	0	0	0;
	735	4.1	2	2	0	1	5	1	4.1	3.9	0	0	0	0	0	0	0	0	0	0	0;
	740	4	0	1	0	1	5	1	4	3.8	0	0	0	0	0	0	0	0	0	0	0;
	744	134	0	60	0	1	161	1	134	127.3	0	0	0	0	0	0	0	0	0	0	0;
	754	80	0.56718	30	0	1	54	1	80	10	0	0	0	0	0	0	0	0	0	0	0;
	755	85	14.8352	80	0	1	110	1	250	85	0	0	0	0	0	0	0	0	0	0	0;
	760	3.1	2	2	0	1	4	1	3.1	2.95	0	0	0	0	0	0	0	0	0	0	0;
	766	2.1	1	1	0	1	3	1	2.1	2	0	0	0	0	0	0	0	0	0	0	0;
	784	0.7	0	0	0	1	1	1	0.7	0.67	0	0	0	0	0	0	0	0	0	0	0;
	790	49.8	35	35	35	1	60	1	49.8	47.31	0	0	0	0	0	0	0	0	0	0	0;
	795	1.89	1	1	1	1	2	1	1.89	1.8	0	0	0	0	0	0	0	0	0	0	0;
	798	2.99	3	3	3	1	4	1	2.99	2.84	0	0	0	0	0	0	0	0	0	0	0;
	814	44.92	16.1224	42	0	1	54	1	44.92	42.67	0	0	0	0	0	0	0	0	0	0	0;
	834	55	81.2873	83	0	1	110	1	55	23	0	0	0	0	0	0	0	0	0	0	0;
	878	2.99	0	0	0	1	4	1	2.99	2.84	0	0	0	0	0	0	0	0	0	0	0;
	884	2.49	0	0	0	1	3	1	2.49	2.37	0	0	0	0	0	0	0	0	0	0	0;
	892	31.87	34.124	42	6	1	38	1	31.87	30.28	0	0	0	0	0	0	0	0	0	0	0;
	895	8.96	7	7	7	1	11	1	8.96	8.51	0	0	0	0	0	0	0	0	0	0	0;
	901	3.68	2	2	2	1	4	1	3.68	3.5	0	0	0	0	0	0	0	0	0	0	0;
	910	4.58	3	3	3	1	6	1	4.58	4.35	0	0	0	0	0	0	0	0	0	0	0;
	911	370	59.1031	224	0	1	415	1	370	280	0	0	0	0	0	0	0	0	0	0	0;
	912	370	67.4296	224	0	1	415	1	370	280	0	0	0	0	0	0	0	0	0	0	0;
	914	15.93	10	10	10	1	19	1	15.93	15.13	0	0	0	0	0	0	0	0	0	0	0;
	917	2.09	0	0	0	1	3	1	2.09	1.99	0	0	0	0	0	0	0	0	0	0	0;
	919	21.91	12	12	12	1	26	1	21.91	20.81	0	0	0	0	0	0	0	0	0	0	0;
	920	1.99	0	0	0	1	2	1	1.99	1.89	0	0	0	0	0	0	0	0	0	0	0;
	929	63.73	32.3057	50	29	1	77	1	63.73	60.54	0	0	0	0	0	0	0	0	0	0	0;
	959	2.49	1	1	1	1	3	1	2.49	2.37	0	0	0	0	0	0	0	0	0	0	0;
	968	0.7	0	0	0	1	1	1	0.7	0.67	0	0	0	0	0	0	0	0	0	0	0;
	993	3.98	1	1	1	1	5	1	3.98	3.78	0	0	0	0	0	0	0	0	0	0	0;
	994	1.99	1	1	1	1	2	1	1.99	1.89	0	0	0	0	0	0	0	0	0	0	0;
	995	20	38	38	0	1	60	1	100	20	0	0	0	0	0	0	0	0	0	0	0;
	996	20	12.3996	38	0	1	60	1	50	20	0	0	0	0	0	0	0	0	0	0	0;
	997	20	38	38	0	1	60	1	50	20	0	0	0	0	0	0	0	0	0	0	0;
	1004	4.28	3	3	3	1	5	1	4.28	4.07	0	0	0	0	0	0	0	0	0	0	0;
	1024	0.1	0	0	0	1	0	1	0.1	0.1	0	0	0	0	0	0	0	0	0	0	0;
	1027	24.9	13	13	13	1	30	1	24.9	23.66	0	0	0	0	0	0	0	0	0	0	0;
	1028	2.99	3	3	3	1	4	1	2.99	2.84	0	0	0	0	0	0	0	0	0	0	0;
	1029	24.9	14	14	14	1	30	1	24.9	23.66	0	0	0	0	0	0	0	0	0	0	0;
	1053	59.76	30.2709	53	0	1	72	1	59.76	56.77	0	0	0	0	0	0	0	0	0	0	0;
	1054	29.88	31	31	0	1	36	1	29.88	28.39	0	0	0	0	0	0	0	0	0	0	0;
	1105	7.97	10	10	10	1	10	1	7.97	7.57	0	0	0	0	0	0	0	0	0	0	0;
	1106	22.91	13	13	13	1	28	1	22.91	21.76	0	0	0	0	0	0	0	0	0	0	0;
	1107	10.56	3	3	3	1	13	1	10.56	10.03	0	0	0	0	0	0	0	0	0	0	0;
	1138	44.82	41	41	0	1	54	1	44.82	42.58	0	0	0	0	0	0	0	0	0	0	0;
	1140	230	66.7193	199	-87	1	252	1	230	70	0	0	0	0	0	0	0	0	0	0	0;
	1141	94.917	48.8205	190	-89	1	251	1	225	70	0	0	0	0	0	0	0	0	0	0	0;
	1175	37.84	20	20	20	1	45	1	37.84	35.95	0	0	0	0	0	0	0	0	0	0	0;
	1182	40	12.325	125	-50	1	133	1	120	40	0	0	0	0	0	0	0	0	0	0	0;
	1183	120	19.5012	125	-50	1	133	1	120	40	0	0	0	0	0	0	0	0	0	0	0;
	1184	120	61.2682	125	-50	1	133	1	120	40	0	0	0	0	0	0	0	0	0	0	0;
	1191	106.56	23.6932	129	-47	1	128	1	106.56	101.23	0	0	0	0	0	0	0	0	0	0	0;
	1192	250	69.2945	125	-50	1	123	1	250	80	0	0	0	0	0	0	0	0	0	0	0;
	1201	99.59	0	90	0	1	120	1	99.59	94.61	0	0	0	0	0	0	0	0	0	0	0;
	1202	99.59	71.827	90	0	1	120	1	99.59	94.61	0	0	0	0	0	0	0	0	0	0	0;
	1203	99.59	44.4643	90	0	1	120	1	99.59	94.61	0	0	0	0	0	0	0	0	0	0	0;
	1232	51.79	25.1424	41	0	1	62	1	51.79	49.2	0	0	0	0	0	0	0	0	0	0	0;
	1233	14.94	19.5029	41	0	1	18	1	14.94	14.19	0	0	0	0	0	0	0	0	0	0	0;
	1244	18.92	20	20	20	1	23	1	18.92	17.97	0	0	0	0	0	0	0	0	0	0	0;
	1247	15.93	12	12	12	1	19	1	15.93	15.13	0	0	0	0	0	0	0	0	0	0	0;
	1250	197.19	65.5075	151	0	1	237	1	197.19	187.33	0	0	0	0	0	0	0	0	0	0	0;
	1268	0.5	0	0	0	1	1	1	0.5	0.48	0	0	0	0	0	0	0	0	0	0	0;
	1316	1	0	0	0	1	1	1	1	0.95	0	0	0	0	0	0	0	0	0	0	0;
	1325	1.39	0	0	0	1	2	1	1.39	1.32	0	0	0	0	0	0	0	0	0	0	0;
	1349	1.49	0	0	0	1	2	1	1.49	1.42	0	0	0	0	0	0	0	0	0	0	0;
	1356	1	2	2	2	1	1	1	1	0.95	0	0	0	0	0	0	0	0	0	0	0;
	1359	0.8	1	1	1	1	1	1	0.8	0.76	0	0	0	0	0	0	0	0	0	0	0;
	1393	12.75	0	11	0	1	15	1	12.75	12.11	0	0	0	0	0	0	0	0	0	0	0;
	1403	4.28	1	1	1	1	5	1	4.28	4.07	0	0	0	0	0	0	0	0	0	0	0;
	1416	371	29.1325	180	10	1	246	1	371	80	0	0	0	0	0	0	0	0	0	0	0;
	1417	120	34.9276	120	5	1	123	1	120	80	0	0	0	0	0	0	0	0	0	0	0;
	1418	20	32.5842	90	5	1	123	1	20	5	0	0	0	0	0	0	0	0	0	0	0;
	1426	495	38.8902	68	27	1	106	1	495	20	0	0	0	0	0	0	0	0	0	0	0;
	1429	0.2	0	0	0	1	0	1	0.2	0.19	0	0	0	0	0	0	0	0	0	0	0;
	1469	0.6	0	0	0	1	1	1	0.6	0.57	0	0	0	0	0	0	0	0	0	0	0;
	1475	2.09	2	2	2	1	3	1	2.09	1.99	0	0	0	0	0	0	0	0	0	0	0;
	1504	31.17	2	2	2	1	37	1	31.17	29.61	0	0	0	0	0	0	0	0	0	0	0;
	1505	48.8	4	4	4	1	59	1	48.8	46.36	0	0	0	0	0	0	0	0	0	0	0;
	1514	2.29	1	1	1	1	3	1	2.29	2.18	0	0	0	0	0	0	0	0	0	0	0;
	1534	0.3	0	0	0	1	0	1	0.3	0.29	0	0	0	0	0	0	0	0	0	0	0;
	1536	160	45.7739	190	-89	1	251	1	225	160	0	0	0	0	0	0	0	0	0	0	0;
	1537	225	71.9112	203	-95	1	255	1	225	160	0	0	0	0	0	0	0	0	0	0	0;
	1538	215	40.2171	190	-89	1	255	1	215	70	0	0	0	0	0	0	0	0	0	0	0;
	1542	8.96	3	3	3	1	11	1	8.96	8.51	0	0	0	0	0	0	0	0	0	0	0;
	1543	1.2	0	0	0	1	1	1	1.2	1.14	0	0	0	0	0	0	0	0	0	0	0;
	1550	1.79	1	1	1	1	2	1	1.79	1.7	0	0	0	0	0	0	0	0	0	0	0;
	1566	54.77	22.117	47	20	1	66	1	54.77	52.03	0	0	0	0	0	0	0	0	0	0	0;
	1587	63.74	27	27	27	1	77	1	63.74	60.55	0	0	0	0	0	0	0	0	0	0	0;
	1600	17.43	3	3	3	1	21	1	17.43	16.56	0	0	0	0	0	0	0	0	0	0	0;
	1602	120	18.6395	90	0	1	144	1	120	40	0	0	0	0	0	0	0	0	0	0	0;
	1603	120	58.0213	90	0	1	144	1	120	40	0	0	0	0	0	0	0	0	0	0	0;
	1609	0.3	0	0	0	1	0	1	0.3	0.29	0	0	0	0	0	0	0	0	0	0	0;
	1617	2	0	0	0	1	2	1	2	1.9	0	0	0	0	0	0	0	0	0	0	0;
	1620	1.6	0	0	0	1	2	1	1.6	1.52	0	0	0	0	0	0	0	0	0	0	0;
...
];

%% branch data
%	fbus	tbus	r	x	b	rateA	rateB	rateC	ratio	angle	status	angmin	angmax
mpc.branch = [
	16	1	0.00155	0.01169	0.0182	160	160	160	0	0	1	-360	360;
	355	1	0.00157	0.06612	0	160	160	160	1.0099	0	1	-360	360;
	17	2	0.00155	0.01169	0.0182	160	160	160	0	0	1	-360	360;
	354	2	0.00157	0.06612	0	160	160	160	1.022	0	1	-360	360;
	10	3	0.01068	0.07895	0.1226	274	274	274	0	0	1	-360	360;
	219	3	0.00165	0.06736	0	160	160	160	1.027	0	1	-360	360;
	220	3	0.00165	0.06736	0	160	160	160	0.9955	0	1	-360	360;
	7	4	0.01674	0.09711	0.14423	377	377	377	0	0	1	-360	360;
	11	4	0.00293	0.01599	0.02478	335	335	335	0	0	1	-360	360;
	14	4	0.00442	0.03223	0.04985	464	464	464	0	0	1	-360	360;
	16	4	0.00888	0.06665	0.08896	377	377	377	0	0	1	-360	360;
	22	4	0.00783	0.043	0.04962	350	350	350	0	0	1	-360	360;
	245	4	0.00165	0.06901	0	160	160	160	1.0594	0	1	-360	360;
	246	4	0.00165	0.06901	0	160	160	160	1.0448	0	1	-360	360;
%	5	6	0.00064	0.0305	0	400	400	400	1.0435	-0.6	1	-360	360;
	7	5	0.00525	0.03988	0.06195	381	381	381	0	0	1	-360	360;
	10	5	0.01459	0.11219	0.16553	381	381	381	0	0	1	-360	360;
	309	5	0.00165	0.0686	0	160	160	160	1.0646	0	1	-360	360;
	309	5	0.00165	0.0686	0	160	160	160	1.0523	0	1	-360	360;
%	6	8	0.00112	0.01329	0.34125	1316	1316	1316	0	0	1	-360	360;
%	6	9	0.00299	0.03675	0.9184	1427	1427	1427	0	0	1	-360	360;
%	15	6	0.00298	0.03417	0.93504	1427	1427	1427	0	0	1	-360	360;
%	31	6	0.0015	0.01506	0.4032	1385	1385	1385	0	0	1	-360	360;
%	310	6	0.0015	0.06188	0	250	250	250	1.0613	0	1	-360	360;
	12	7	0.01211	0.08742	0.14017	381	381	381	0	0	1	-360	360;
	13	7	0.00205	0.01326	0.02243	335	335	335	0	0	1	-360	360;
	19	7	0.0057	0.0407	0.06021	323	323	323	0	0	1	-360	360;
	21	7	0.00093	0.00651	0.01113	160	160	160	0	0	1	-360	360;
	29	7	0.01269	0.07498	0.1302	362	362	362	0	0	1	-360	360;
	321	7	0.00041	0.03368	0	250	250	250	1.0323	0	1	-360	360;
	322	7	0.00165	0.06775	0	160	160	160	1.0569	0	1	-360	360;
%	8	18	0.00336	0.03977	1.02163	1316	1316	1316	0	0	1	-360	360;
	332	9	0.00087	0.05244	-0.02144	330	330	330	1.0781	0	1	-360	360;
	171	10	0.01409	0.10413	0.15972	464	464	464	0	0	1	-360	360;
	346	10	0.00124	0.06839	0	160	160	160	1.0054	0	1	-360	360;
	347	10	0.00124	0.06839	0	160	160	160	1.024	0	1	-360	360;
	16	11	0.0057	0.03952	0.07553	464	464	464	0	0	1	-360	360;
	17	11	0.0057	0.03952	0.07553	464	464	464	0	0	1	-360	360;
	111	11	0.01068	0.06196	0.09496	394	394	394	0	0	1	-360	360;
	352	11	0.00165	0.06901	0	160	160	160	1.0412	0	1	-360	360;
	353	11	0.00165	0.06901	0	160	160	160	1.0559	0	1	-360	360;
	140	12	0.01465	0.10589	0.17085	464	464	464	0	0	1	-360	360;
	359	12	0.00155	0.06612	0	160	160	160	1.0395	0	1	-360	360;
	360	12	0.00157	0.06612	0	160	160	160	1.059	0	1	-360	360;
	29	13	0.01345	0.08114	0.14113	339	339	339	0	0	1	-360	360;
	365	13	0.00165	0.06901	0	160	160	160	1.0312	0	1	-360	360;
	366	13	0.00165	0.06901	0	160	160	160	0.9872	0	1	-360	360;
	17	14	0.00384	0.02853	0.04588	464	464	464	0	0	1	-360	360;
	367	14	0.00157	0.06798	0	160	160	160	1.0664	0	1	-360	360;
	368	14	0.00165	0.06901	0	160	160	160	1.0777	0	1	-360	360;
%	18	15	0.00358	0.04262	1.0944	1662	1662	1662	0	0	1	-360	360;
	15	165	0.00207	0.02474	0.664	831	831	831	0	0	1	-360	360;
	374	15	0.0015	0.06188	0	250	250	250	1.1502	0	1	-360	360;
	16	18	0.00036	0.02519	0	500	500	500	1.0605	0	1	-360	360;
	16	73	0.00909	0.0624	0.11142	464	464	464	0	0	1	-360	360;
	17	18	0.00036	0.02519	0	500	500	500	1.0607	0	1	-360	360;
	17	74	0.00868	0.06405	0.09699	464	464	464	0	0	1	-360	360;
	20	18	0.00063	0.00749	0.39226	1427	1427	1427	0	0	1	-360	360;
	75	18	0.00219	0.02369	0.59584	1434	1434	1434	0	0	1	-360	360;
	18	76	0.00137	0.01625	0.41184	1662	1662	1662	0	0	1	-360	360;
	18	101	0.00231	0.02769	0.70144	1662	1662	1662	0	0	1	-360	360;
	124	19	0.01696	0.12366	0.19699	464	464	464	0	0	1	-360	360;
	425	19	0.00165	0.06818	0	160	160	160	1.0241	0	1	-360	360;
	67	20	0.00331	0.03425	0.85888	831	831	831	0	0	1	-360	360;
	447	20	0.00137	0.06119	-0.01504	250	250	250	1.0796	0	1	-360	360;
	448	20	0.00137	0.06119	-0.01504	250	250	250	1.0923	0	1	-360	360;
	502	21	0.00165	0.07107	0	160	160	160	0.9922	0	1	-360	360;
	112	22	0.00465	0.02618	0.02962	362	362	362	0	0	1	-360	360;
	526	22	0.00165	0.06901	0	160	160	160	1.0685	0	1	-360	360;
	527	22	0.00165	0.06901	0	160	160	160	1.0424	0	1	-360	360;
	37	23	0.01163	0.07031	0.1058	394	394	394	0	0	1	-360	360;
	46	23	0.00837	0.04868	0.07348	457	457	457	0	0	1	-360	360;
	53	23	0.01122	0.06558	0.09835	274	274	274	0	0	1	-360	360;
	540	23	0.0014	0.0668	0	160	160	160	1.0182	0	1	-360	360;
	54	24	0.00769	0.05727	0.08789	160	160	160	0	0	1	-360	360;
	545	24	0.00151	0.06715	0	160	160	160	1.0161	0	1	-360	360;
	41	25	0.00556	0.04145	0.0636	274	274	274	0	0	1	-360	360;
	53	25	0.00452	0.03368	0.05169	464	464	464	0	0	1	-360	360;
	54	25	0.00019	0.0014	0.00213	464	464	464	0	0	1	-360	360;
	564	25	0.00157	0.07808	0	160	160	160	1.0276	0	1	-360	360;
	38	26	0.00698	0.05196	0.07967	160	160	160	0	0	1	-360	360;
	568	26	0.00149	0.06616	0	160	160	160	1.013	0	1	-360	360;
	28	27	0	0.0001	0	876	876	876	0	0	1	-360	360;
	33	27	0.0024	0.01494	0.02253	160	160	160	0	0	1	-360	360;
	48	27	0.01213	0.06215	0.09371	362	362	362	0	0	1	-360	360;
	27	74	0.01116	0.07231	0.10367	304	304	304	0	0	1	-360	360;
	47	28	0.00248	0.01798	0.02759	464	464	464	0	0	1	-360	360;
	28	88	0.01488	0.08161	0.1148	362	362	362	0	0	1	-360	360;
	30	29	0	0.0001	0	876	876	876	0	0	1	-360	360;
	29	32	0.00034	0.02097	0	500	500	500	1.0619	0	1	-360	360;
	45	29	0.00545	0.04021	0.06699	464	464	464	0	0	1	-360	360;
	48	29	0.00574	0.04283	0.06573	464	464	464	0	0	1	-360	360;
	613	29	0.00157	0.06775	0	160	160	160	1.0016	0	1	-360	360;
	46	30	0.00545	0.04021	0.06699	464	464	464	0	0	1	-360	360;
	49	30	0.00707	0.04541	0.06931	362	362	362	0	0	1	-360	360;
	32	31	0	0.0001	0	1593	1593	1593	0	0	1	-360	360;
	39	31	0.00176	0.02144	0.57344	1385	1385	1385	0	0	1	-360	360;
	36	32	0.00167	0.0189	0.54176	498	498	498	0	0	1	-360	360;
	615	33	0.00163	0.06946	0	160	160	160	1.0291	0	1	-360	360;
	35	34	0	0.0001	0	1593	1593	1593	0	0	1	-360	360;
%	34	51	0.00113	0.01406	0.37488	1385	1385	1385	0	0	1	-360	360;
%	183	34	0.00188	0.02287	0.6432	1385	1385	1385	0	0	1	-360	360;
%	183	35	0.00188	0.02287	0.6432	1385	1385	1385	0	0	1	-360	360;
	617	35	0.00135	0.06052	0	250	250	250	1.0654	0	1	-360	360;
	644	36	0.00135	0.06052	0	250	250	250	1.1003	0	1	-360	360;
	645	36	0.00153	0.06156	0	250	250	250	1.0971	0	1	-360	360;
	38	37	0	0.0001	0	876	876	876	0	0	1	-360	360;
	663	37	0.00157	0.06616	0	160	160	160	1.0009	0	1	-360	360;
	55	38	0.00316	0.02076	0.03146	394	394	394	0	0	1	-360	360;
	40	39	0	0.0001	0	1593	1593	1593	0	0	1	-360	360;
	682	39	0.00139	0.05984	0	250	250	250	1.0603	0	1	-360	360;
	44	40	0.00109	0.01277	0.34176	1385	1385	1385	0	0	1	-360	360;
	679	40	0.0014	0.06235	0	250	250	250	1.0996	0	1	-360	360;
	42	41	0	0.0001	0	876	876	876	0	0	1	-360	360;
	41	43	0.00081	0.03	0	400	400	400	1.0377	0	1	-360	360;
	80	41	0.00372	0.0438	0.10096	609	609	609	0	0	1	-360	360;
	47	42	0.00882	0.06564	0.10066	274	274	274	0	0	1	-360	360;
	54	42	0.00355	0.02643	0.04056	392	392	392	0	0	1	-360	360;
	689	42	0.00145	0.06839	0	160	160	160	1.0037	0	1	-360	360;
	44	43	0	0.0001	0	1593	1593	1593	0	0	1	-360	360;
	99	43	0.00169	0.01994	0.50624	831	831	831	0	0	1	-360	360;
	50	44	0.00094	0.01097	0.29376	1662	1662	1662	0	0	1	-360	360;
	46	45	0	0.0001	0	876	876	876	0	0	1	-360	360;
	49	45	0.01048	0.06097	0.09205	394	394	394	0	0	1	-360	360;
	706	47	0.00157	0.06775	0	160	160	160	1.0249	0	1	-360	360;
	707	47	0.00165	0.06775	0	160	160	160	1.0201	0	1	-360	360;
	49	48	0	0.0001	0	876	876	876	0	0	1	-360	360;
	717	48	0.00163	0.06783	0	160	160	160	1.023	0	1	-360	360;
	716	49	0.00143	0.06831	0	160	160	160	1.0238	0	1	-360	360;
	51	50	0	0.0001	0	1593	1593	1593	0	0	1	-360	360;
	98	50	0.0015	0.01788	0.4512	831	831	831	0	0	1	-360	360;
	100	50	0.00469	0.05544	1.4048	831	831	831	0	0	1	-360	360;
	726	50	0.00139	0.0608	0	250	250	250	1.0815	0	1	-360	360;
	727	51	0.0014	0.06235	0	250	250	250	1.0819	0	1	-360	360;
	53	52	0.00151	0.00878	0.01316	160	160	160	0	0	1	-360	360;
	754	52	0.00163	0.06754	0	160	160	160	1.0317	0	1	-360	360;
%	181	55	0.01434	0.08353	0.12603	394	394	394	0	0	1	-360	360;
	778	55	0.00161	0.06762	0	160	160	160	0.9979	0	1	-360	360;
	74	56	0.00207	0.01281	0.02052	394	394	394	0	0	1	-360	360;
	796	56	0.00207	0.06777	-0.003	160	160	160	1.0389	0	1	-360	360;
	81	57	0.00083	0.00496	0.00726	137	137	137	0	0	1	-360	360;
	80	58	0.00083	0.00496	0.00726	137	137	137	0	0	1	-360	360;
	63	59	0.00207	0.01405	0.02265	362	362	362	0	0	1	-360	360;
	82	59	0.01116	0.07045	0.11606	362	362	362	0	0	1	-360	360;
	821	59	0.00165	0.06798	-0.00319	160	160	160	1.0178	0	1	-360	360;
	60	85	0.01095	0.0593	0.08441	362	362	362	0	0	1	-360	360;
	104	60	0.00599	0.04091	0.07212	464	464	464	0	0	1	-360	360;
	834	60	0.00145	0.06921	-0.00532	160	160	160	0.9936	0	1	-360	360;
%	836	60	0.00372	0.12583	-0.00242	100	100	100	1.0154	0	1	-360	360;
	62	61	0	0.0001	0	876	876	876	0	0	1	-360	360;
	64	61	0.00517	0.03843	0.05876	464	464	464	0	0	1	-360	360;
	109	61	0.00083	0.0062	0.00958	464	464	464	0	0	1	-360	360;
%	184	61	0.01219	0.07066	0.11742	274	274	274	0	0	1	-360	360;
	82	62	0.00165	0.01095	0.01955	464	464	464	0	0	1	-360	360;
	110	62	0.00083	0.0062	0.00949	464	464	464	0	0	1	-360	360;
	71	63	0.00475	0.03079	0.04879	362	362	362	0	0	1	-360	360;
	91	63	0.00455	0.02769	0.04608	394	394	394	0	0	1	-360	360;
	94	63	0.00186	0.0126	0.02236	464	464	464	0	0	1	-360	360;
	96	63	0.00826	0.04236	0.06118	362	362	362	0	0	1	-360	360;
	64	69	0.00434	0.02975	0.05266	464	464	464	0	0	1	-360	360;
	79	64	0.00351	0.02438	0.03998	362	362	362	0	0	1	-360	360;
	93	64	0.00186	0.0126	0.02236	464	464	464	0	0	1	-360	360;
	95	64	0.00826	0.04236	0.06118	362	362	362	0	0	1	-360	360;
	90	65	0.00785	0.04132	0.06389	394	394	394	0	0	1	-360	360;
	65	91	0.00227	0.01446	0.02585	394	394	394	0	0	1	-360	360;
	66	67	0.00031	0.02094	0	500	500	500	1.0616	0	1	-360	360;
	66	68	0.00248	0.02355	0.04763	457	457	457	0	0	1	-360	360;
	152	66	0.01033	0.08285	0.13959	464	464	464	0	0	1	-360	360;
	138	67	0.00194	0.02056	0.51584	866	866	866	0	0	1	-360	360;
	911	67	0.00156	0.06269	-0.00992	250	250	250	1.0656	0	1	-360	360;
	912	67	0.00156	0.06269	-0.00992	250	250	250	1.066	0	1	-360	360;
	68	78	0.00579	0.04153	0.06621	464	464	464	0	0	1	-360	360;
	978	68	0.00165	0.06694	-0.0031	160	160	160	1.0083	0	1	-360	360;
	979	68	0.00145	0.06653	-0.00319	160	160	160	1.006	0	1	-360	360;
	83	69	0.00145	0.00992	0.01762	464	464	464	0	0	1	-360	360;
	995	69	0.00145	0.0655	-0.00252	160	160	160	1.0107	0	1	-360	360;
	996	69	0.00145	0.07045	-0.00252	160	160	160	1.0025	0	1	-360	360;
	70	73	0.00145	0.00971	0.01626	457	457	457	0	0	1	-360	360;
	107	70	0.00062	0.00413	0.00697	457	457	457	0	0	1	-360	360;
	72	71	0	0.0001	0	876	876	876	0	0	1	-360	360;
	86	71	0.00165	0.00971	0.01423	362	362	362	0	0	1	-360	360;
	1059	71	0.00145	0.06983	-0.00232	160	160	160	1.0193	0	1	-360	360;
	1060	71	0.00165	0.06777	-0.00281	160	160	160	0.9558	0	1	-360	360;
	73	75	0.00075	0.02444	-0.00832	330	330	330	1.0544	1.7	1	-360	360;
	87	73	0.00393	0.02851	0.04501	464	464	464	0	0	1	-360	360;
	74	76	0.00075	0.02469	-0.008	330	330	330	1.0606	1.7	1	-360	360;
	74	108	0.00083	0.00517	0.00871	464	464	464	0	0	1	-360	360;
	76	75	0	0.0001	0	1593	1593	1593	0	0	1	-360	360;
	76	105	0.00244	0.02756	0.768	845	845	845	0	0	1	-360	360;
	84	77	0.00393	0.02665	0.04617	457	457	457	0	0	1	-360	360;
	85	77	0.00186	0.01384	0.02284	464	464	464	0	0	1	-360	360;
	1095	77	0.00165	0.06694	-0.0029	160	160	160	1.0162	0	1	-360	360;
	1096	77	0.00145	0.06736	-0.00658	160	160	160	1.0085	0	1	-360	360;
	78	103	0.00496	0.03368	0.05963	464	464	464	0	0	1	-360	360;
	1106	78	0.00145	0.06839	-0.00319	160	160	160	1.0272	0	1	-360	360;
	88	79	0.0031	0.02335	0.0362	464	464	464	0	0	1	-360	360;
	81	80	0	0.0001	0	876	876	876	0	0	1	-360	360;
	80	96	0.01591	0.0876	0.11684	362	362	362	0	0	1	-360	360;
	1114	80	0.00165	0.06694	-0.00232	160	160	160	0.9876	0	1	-360	360;
	93	81	0.01777	0.11674	0.16359	362	362	362	0	0	1	-360	360;
	1115	81	0.00165	0.06694	-0.00319	160	160	160	0.9847	0	1	-360	360;
	1138	82	0.00165	0.06756	-0.00319	160	160	160	1.0035	0	1	-360	360;
	1139	82	0.00145	0.06756	-0.00223	160	160	160	1.0148	0	1	-360	360;
	84	83	0	0.0001	0	876	876	876	0	0	1	-360	360;
	103	83	0.0031	0.02169	0.03843	464	464	464	0	0	1	-360	360;
	1141	83	0.00145	0.06653	-0.0029	160	160	160	1.0054	0	1	-360	360;
	184	84	0.01178	0.07087	0.11684	274	274	274	0	0	1	-360	360;
	1192	84	0.00165	0.0686	-0.0029	160	160	160	1.001	0	1	-360	360;
	86	85	0	0.0001	0	876	876	876	0	0	1	-360	360;
	1182	85	0.00207	0.0936	-0.00339	160	160	160	1.0033	0	1	-360	360;
	86	108	0.00537	0.0405	0.06002	464	464	464	0	0	1	-360	360;
	1184	86	0.00186	0.09277	-0.003	160	160	160	0.9967	0	1	-360	360;
	88	87	0	0.0001	0	876	876	876	0	0	1	-360	360;
	94	87	0.00599	0.03512	0.05237	362	362	362	0	0	1	-360	360;
	1213	87	0.00145	0.06715	-0.00223	160	160	160	1.0209	0	1	-360	360;
	89	94	0.00599	0.04153	0.07366	464	464	464	0	0	1	-360	360;
	102	89	0.00207	0.01343	0.02207	362	362	362	0	0	1	-360	360;
	1217	89	0.00145	0.0657	-0.00523	160	160	160	1.0212	0	1	-360	360;
	104	90	0.00455	0.0314	0.05489	464	464	464	0	0	1	-360	360;
	1244	90	0.00145	0.06756	-0.00348	160	160	160	0	0	1	-360	360;
	1343	91	0.00145	0.06756	-0.0029	160	160	160	1.0144	0	1	-360	360;
	100	92	0.00094	0.01038	0.28992	845	845	845	0	0	1	-360	360;
	92	106	0.00094	0.0105	0.2928	845	845	845	0	0	1	-360	360;
	1382	92	0.00156	0.06269	-0.00864	250	250	250	1.0686	0	1	-360	360;
	1384	92	0.00156	0.06294	-0.00864	250	250	250	1.0794	0	1	-360	360;
	94	93	0	0.0001	0	876	876	876	0	0	1	-360	360;
	1418	93	0.00145	0.06736	-0.00223	160	160	160	1.0031	0	1	-360	360;
	96	95	0	0.0001	0	876	876	876	0	0	1	-360	360;
	102	95	0.00455	0.02459	0.0362	362	362	362	0	0	1	-360	360;
	1426	96	0.00145	0.06674	-0.00658	160	160	160	1.0075	0	1	-360	360;
	1427	97	0.00041	0.01818	0	125	125	125	0.9996	0	1	-360	360;
	99	98	0	0.0001	0	1593	1593	1593	0	0	1	-360	360;
	1502	98	0.00137	0.05988	-0.01504	250	250	250	1.1628	0	1	-360	360;
	101	99	0.00313	0.03562	0.99104	845	845	845	0	0	1	-360	360;
	101	100	0	0.0001	0	1593	1593	1593	0	0	1	-360	360;
	1504	100	0.00137	0.06119	-0.00992	250	250	250	1.0798	0	1	-360	360;
	1505	101	0.00156	0.06269	-0.00992	250	250	250	1.0818	0	1	-360	360;
	1524	102	0.00165	0.06694	-0.003	160	160	160	1.0081	0	1	-360	360;
	104	103	0	0.0001	0	876	876	876	0	0	1	-360	360;
	103	106	0.0005	0.02875	-0.016	400	400	400	1.0641	0	1	-360	360;
	1536	103	0.00145	0.0686	-0.00232	160	160	160	1.0043	0	1	-360	360;
	1538	104	0.00165	0.06818	-0.0029	160	160	160	1.004	0	1	-360	360;
	106	105	0	0.0001	0	1593	1593	1593	0	0	1	-360	360;
%	105	185	0.00187	0.01763	0.4832	1108	1108	1108	0	0	1	-360	360;
%	106	180	0.0015	0.01469	0.40384	1108	1108	1108	0	0	1	-360	360;
	108	107	0.00062	0.00496	0.00755	464	464	464	0	0	1	-360	360;
	1552	107	0.00145	0.06756	-0.00378	160	160	160	1.0333	0	1	-360	360;
	1553	107	0.00145	0.0655	-0.0029	160	160	160	1.0192	0	1	-360	360;
	112	111	0	0.0001	0	876	876	876	0	0	1	-360	360;
	123	111	0.00438	0.03188	0.05072	464	464	464	0	0	1	-360	360;
	124	111	0.00614	0.03252	0.05246	362	362	362	0	0	1	-360	360;
	1603	111	0.00165	0.0625	0	160	160	160	1.0034	0	1	-360	360;
	113	114	0.00506	0.03654	0.0636	304	304	304	0	0	1	-360	360;
	151	113	0.00221	0.01655	0.02478	304	304	304	0	0	1	-360	360;
	1623	113	0.00145	0.06818	0	160	160	160	1.0733	0	1	-360	360;
	1624	113	0.00165	0.06818	0	160	160	160	1.0618	0	1	-360	360;
%	114	131	0.00583	0.04231	0.07066	464	464	464	0	0	1	-360	360;
	1647	114	0.00151	0.06688	0	160	160	160	1.0504	0	1	-360	360;
	116	115	0	0.0001	0	1593	1593	1593	0	0	1	-360	360;
	133	115	0.00274	0.02696	0.70592	1385	1385	1385	0	0	1	-360	360;
	1649	115	0.00153	0.06206	0	250	250	250	1.1835	0	1	-360	360;
	138	116	0.0017	0.01733	0.45632	1385	1385	1385	0	0	1	-360	360;
	1650	116	0.00152	0.06206	0	250	250	250	1.1614	0	1	-360	360;
	140	117	0.01103	0.08057	0.12413	304	304	304	0	0	1	-360	360;
	143	117	0.00355	0.02593	0.04124	464	464	464	0	0	1	-360	360;
	1655	117	0.00151	0.06688	0	160	160	160	1.0335	0	1	-360	360;
	119	118	0	0.0001	0	876	876	876	0	0	1	-360	360;
	126	118	0.00647	0.0413	0.06921	464	464	464	0	0	1	-360	360;
	142	118	0.00105	0.00721	0.01028	464	464	464	0	0	1	-360	360;
	1680	118	0.00151	0.06688	0	160	160	160	1.0498	0	1	-360	360;
	125	120	0.01043	0.07789	0.12206	464	464	464	0	0	1	-360	360;
	130	120	0.01054	0.07686	0.12236	464	464	464	0	0	1	-360	360;
	1686	120	0.00161	0.06653	0	160	160	160	1.0639	0	1	-360	360;
	1687	120	0.00161	0.06653	0	160	160	160	1.0532	0	1	-360	360;
	122	121	0	0.0001	0	876	876	876	0	0	1	-360	360;
	151	121	0.00603	0.04401	0.06979	464	464	464	0	0	1	-360	360;
	1747	121	0.00145	0.06818	0	160	160	160	1.0226	0	1	-360	360;
	1748	121	0.00145	0.06818	0	160	160	160	1.028	0	1	-360	360;
	124	123	0	0.0001	0	876	876	876	0	0	1	-360	360;
	140	123	0.00048	0.00331	0.00571	464	464	464	0	0	1	-360	360;
	144	123	0.0186	0.09638	0.14094	362	362	362	0	0	1	-360	360;
	1760	123	0.00341	0.22521	0	80	80	80	0.9794	0	1	-360	360;
	1762	123	0.00165	0.06851	0	160	160	160	1.0321	0	1	-360	360;
	1764	123	0.00562	0.23161	0	80	80	80	0.9407	0	1	-360	360;
	139	124	0.00048	0.00331	0.00571	304	304	304	0	0	1	-360	360;
	1761	124	0.00341	0.2314	0	80	80	80	0.9794	0	1	-360	360;
	1763	124	0.00562	0.22624	0	80	80	80	0.9407	0	1	-360	360;
	126	125	0	0.0001	0	876	876	876	0	0	1	-360	360;
	135	125	0.00469	0.03465	0.05382	464	464	464	0	0	1	-360	360;
%	186	125	0.00165	0.01591	0.04695	464	464	464	0	0	1	-360	360;
	1775	125	0.00163	0.06136	0.00416	160	160	160	1.0176	0	1	-360	360;
	126	127	0.00064	0.0305	0	400	400	400	1.0488	0	1	-360	360;
%	186	126	0.00165	0.01591	0.04695	464	464	464	0	0	1	-360	360;
	128	127	0	0.0001	0	1593	1593	1593	0	0	1	-360	360;
	157	127	0.00294	0.03463	0.9216	831	831	831	0	0	1	-360	360;
	145	128	0.00371	0.04326	1.18688	748	748	748	0	0	1	-360	360;
	143	129	0.00934	0.05225	0.0877	394	394	394	0	0	1	-360	360;
	129	148	0.01058	0.053	0.08848	394	394	394	0	0	1	-360	360;
	1814	129	0.00165	0.0593	0	160	160	160	1.0499	0	1	-360	360;
	130	132	0.01252	0.09136	0.14539	381	381	381	0	0	1	-360	360;
	130	154	0.00771	0.05696	0.08838	381	381	381	0	0	1	-360	360;
	1822	130	0.00165	0.0593	0	160	160	160	1.088	0	1	-360	360;
	1823	130	0.00165	0.0593	0	160	160	160	1.094	0	1	-360	360;
	132	131	0	0.0001	0	876	876	876	0	0	1	-360	360;
	131	133	0.00084	0.02756	0	330	330	330	1.1147	2.4	1	-360	360;
	147	131	0.01545	0.07335	0.12661	464	464	464	0	0	1	-360	360;
	151	131	0.01457	0.07955	0.14007	394	394	394	0	0	1	-360	360;
	1839	131	0.00165	0.09277	0	160	160	160	1.0343	0	1	-360	360;
	132	134	0.00084	0.02756	0	330	330	330	1.1147	2.4	1	-360	360;
	148	132	0.01545	0.07335	0.12661	464	464	464	0	0	1	-360	360;
	150	132	0.01457	0.07955	0.14007	394	394	394	0	0	1	-360	360;
	1840	132	0.00165	0.06694	0	160	160	160	1.0225	0	1	-360	360;
	134	133	0	0.0001	0	1593	1593	1593	0	0	1	-360	360;
%	182	133	0.00031	0.00338	0.0992	1385	1385	1385	0	0	1	-360	360;
%	182	134	0.00031	0.00338	0.0992	1385	1385	1385	0	0	1	-360	360;
	136	135	0	0.0001	0	876	876	876	0	0	1	-360	360;
	142	135	0.0061	0.04483	0.07095	464	464	464	0	0	1	-360	360;
	1845	135	0.00029	0.06136	0.00416	160	160	160	1.0654	0	1	-360	360;
	1846	135	0.00165	0.0686	0	160	160	160	1.0626	0	1	-360	360;
%	138	137	0	0.0001	0	1593	1593	1593	0	0	1	-360	360;
	1880	138	0.00138	0.05931	0	250	250	250	1.1019	0	1	-360	360;
	1881	138	0.00138	0.05931	0	250	250	250	1.1019	0	1	-360	360;
	140	139	0	0.0001	0	876	876	876	0	0	1	-360	360;
	166	139	0.01386	0.08702	0.13504	304	304	304	0	0	1	-360	360;
	174	139	0.01176	0.06829	0.1028	381	381	381	0	0	1	-360	360;
	167	140	0.01717	0.0894	0.12903	304	304	304	0	0	1	-360	360;
	1882	140	0.00163	0.07033	0	160	160	160	1.003	0	1	-360	360;
	144	141	0.01312	0.07622	0.11664	381	381	381	0	0	1	-360	360;
	178	141	0.01676	0.09717	0.14868	274	274	274	0	0	1	-360	360;
	1902	141	0.00165	0.0593	0	160	160	160	1.0291	0	1	-360	360;
	1903	141	0.00165	0.0593	0	160	160	160	1.0279	0	1	-360	360;
	1904	142	0.00281	0.10601	0	100	100	100	1.0771	0	1	-360	360;
	1905	142	0.00281	0.10601	0	100	100	100	0.9302	0	1	-360	360;
	144	143	0	0.0001	0	876	876	876	0	0	1	-360	360;
	143	145	0.00035	0.02375	0	500	500	500	1.1409	0	1	-360	360;
	149	143	0.00244	0.01318	0.0213	160	160	160	0	0	1	-360	360;
	144	147	0.01849	0.0956	0.15914	304	304	304	0	0	1	-360	360;
	1907	144	0.00165	0.0593	0	160	160	160	1.0366	0	1	-360	360;
	146	145	0	0.0001	0	1593	1593	1593	0	0	1	-360	360;
	1906	145	0.00153	0.06206	0	250	250	250	1.1273	0	1	-360	360;
	148	147	0	0.0001	0	876	876	876	0	0	1	-360	360;
	154	147	0.0024	0.01779	0.02759	381	381	381	0	0	1	-360	360;
	1919	147	0.00165	0.06653	0	160	160	160	1.0906	0	1	-360	360;
	1920	148	0.00165	0.06775	0	160	160	160	1.0137	0	1	-360	360;
	1925	149	0.00165	0.05229	0	160	160	160	1.0317	0	1	-360	360;
	151	150	0	0.0001	0	876	876	876	0	0	1	-360	360;
	152	150	0.00517	0.03698	0.05895	464	464	464	0	0	1	-360	360;
	1987	150	0.00165	0.06818	0	160	160	160	1.0702	0	1	-360	360;
	1988	151	0.00165	0.06818	0	160	160	160	1.0633	0	1	-360	360;
	153	152	0	0.0001	0	876	876	876	0	0	1	-360	360;
	2090	152	0.00165	0.06632	0	160	160	160	1.0646	0	1	-360	360;
	2112	154	0.00165	0.06632	0	160	160	160	1.0891	0	1	-360	360;
	2113	154	0.00165	0.06632	0	160	160	160	1.0903	0	1	-360	360;
	166	155	0.0018	0.02114	0.0515	160	160	160	0	0	1	-360	360;
	2134	155	0.00155	0.06585	0	160	160	160	1.0712	0	1	-360	360;
	156	158	0.00059	0.03093	0	400	400	400	1.1047	0	1	-360	360;
	179	156	0.0057	0.04236	0.12971	365	365	365	0	0	1	-360	360;
	158	157	0	0.0001	0	1593	1593	1593	0	0	1	-360	360;
	2157	157	0.00137	0.05969	0	250	250	250	1.0995	0	1	-360	360;
	176	158	0.00281	0.03312	0.88096	831	831	831	0	0	1	-360	360;
	160	159	0	0.0001	0	1593	1593	1593	0	0	1	-360	360;
	159	165	0.00224	0.02583	0.72352	831	831	831	0	0	1	-360	360;
	159	176	0.00133	0.01569	0.41821	831	831	831	0	0	1	-360	360;
	2165	159	0.00129	0.06437	0	250	250	250	1.0465	0	1	-360	360;
	168	160	0.0021	0.02475	0.65792	831	831	831	0	0	1	-360	360;
	160	177	0.00133	0.01569	0.41821	831	831	831	0	0	1	-360	360;
	2166	160	0.00129	0.06437	0	250	250	250	1.0537	0	1	-360	360;
	162	161	0	0.0001	0	876	876	876	0	0	1	-360	360;
	161	166	0.02738	0.14254	0.20047	274	274	274	0	0	1	-360	360;
	2170	161	0.00159	0.06694	0	160	160	160	1.0229	0	1	-360	360;
	162	179	0.01905	0.11132	0.16785	274	274	274	0	0	1	-360	360;
	2169	162	0.0037	0.18657	0	120	120	120	1.0617	0	1	-360	360;
	164	163	0	0.0001	0	876	876	876	0	0	1	-360	360;
	163	165	0.0004	0.03	0	500	500	500	1.1321	3.6	1	-360	360;
	163	172	0.00564	0.04196	0.06437	274	274	274	0	0	1	-360	360;
	2188	163	0.00163	0.06671	0	160	160	160	1.0201	0	1	-360	360;
	164	167	0.00795	0.05919	0.0908	274	274	274	0	0	1	-360	360;
	2186	164	0.00163	0.06671	0	160	160	160	0.9844	0	1	-360	360;
	2187	165	0.00059	0.04206	0	330	330	330	1.0822	0	1	-360	360;
	167	166	0	0.0001	0	876	876	876	0	0	1	-360	360;
	2195	166	0.00159	0.06736	0	160	160	160	1.0261	0	1	-360	360;
	2196	167	0.00159	0.06736	0	160	160	160	1.0259	0	1	-360	360;
	169	168	0	0.0001	0	1593	1593	1593	0	0	1	-360	360;
	2258	169	0.00089	0.05411	0	330	330	330	1.0528	0	1	-360	360;
	171	170	0	0.0001	0	876	876	876	0	0	1	-360	360;
	170	174	0.02756	0.16014	0.24287	274	274	274	0	0	1	-360	360;
	2260	170	0.00161	0.06756	0	160	160	160	1.0503	0	1	-360	360;
	2261	171	0.00161	0.06756	0	160	160	160	1.024	0	1	-360	360;
	173	172	0	0.0001	0	876	876	876	0	0	1	-360	360;
	2339	172	0.00157	0.0675	0	160	160	160	1.0215	0	1	-360	360;
	173	175	0.00731	0.05579	0.08364	274	274	274	0	0	1	-360	360;
	2340	173	0.00277	0.1062	0	100	100	100	1.0355	0	1	-360	360;
	175	174	0	0.0001	0	876	876	876	0	0	1	-360	360;
	2357	174	0.00161	0.06736	0	160	160	160	1.05	0	1	-360	360;
	2357	175	0.00165	0.06671	0	160	160	160	1.0491	0	1	-360	360;
	177	176	0	0.0001	0	1593	1593	1593	0	0	1	-360	360;
	2377	176	0.00137	0.05969	0	250	250	250	1.1045	0	1	-360	360;
	2378	176	0.00137	0.05969	0	250	250	250	1.105	0	1	-360	360;
	179	178	0	0.0001	0	876	876	876	0	0	1	-360	360;
	2380	178	0.00155	0.06798	0	160	160	160	1.0297	0	1	-360	360;
	2381	179	0.00161	0.06775	0	160	160	160	1.0286	0	1	-360	360;
	202	187	0.10041	0.17736	0.01665	68	68	68	0	0	1	-360	360;
	423	187	0.0386	0.08364	0.00735	90	90	90	0	0	1	-360	360;
	434	188	0.04017	0.11711	0.01446	140	140	140	0	0	1	-360	360;
	437	188	0.0414	0.1257	0.01489	140	140	140	0	0	1	-360	360;
	443	189	0.04719	0.08273	0.00785	90	90	90	0	0	1	-360	360;
	513	189	0.03909	0.06843	0.00649	91	91	91	0	0	1	-360	360;
	355	190	0.01967	0.0638	0.0066	120	120	120	0	0	1	-360	360;
	376	190	0.02231	0.07248	0.0075	120	120	120	0	0	1	-360	360;
	207	191	0.00686	0.02215	0.00229	120	120	120	0	0	1	-360	360;
	529	191	0.02058	0.06694	0.00691	120	120	120	0	0	1	-360	360;
	193	192	0.00694	0.02256	0.00231	140	140	140	0	0	1	-360	360;
	194	192	0.00264	0.00851	0.00088	140	140	140	0	0	1	-360	360;
	308	192	0.03942	0.12033	0.01413	137	137	137	0	0	1	-360	360;
	453	192	0.00818	0.02545	0.00289	122	122	122	0	0	1	-360	360;
	193	332	0.0205	0.07347	0.00782	140	140	140	0	0	1	-360	360;
	248	194	0.02893	0.08719	0.0105	140	140	140	0	0	1	-360	360;
	256	194	0.02802	0.08446	0.01016	140	140	140	0	0	1	-360	360;
	332	194	0.02545	0.08099	0.00735	120	120	120	0	0	1	-360	360;
	285	195	0.01959	0.06355	0.00659	137	137	137	0	0	1	-360	360;
	514	195	0.00992	0.02975	0.00316	120	120	120	0	0	1	-360	360;
	1736	196	0.06182	0.10504	0.01014	90	90	90	0	0	1	-360	360;
	197	247	0.0443	0.09347	0.00876	90	90	90	0	0	1	-360	360;
	351	198	0.03529	0.10818	0.011	90	90	90	0	0	1	-360	360;
	425	198	0.02744	0.08264	0.00995	76	76	76	0	0	1	-360	360;
	433	199	0.00983	0.03198	0.0033	120	120	120	0	0	1	-360	360;
	444	199	0.01198	0.03893	0.00402	120	120	120	0	0	1	-360	360;
	200	428	0.0076	0.02298	0.00272	120	120	120	0	0	1	-360	360;
	533	200	0.03339	0.10124	0.01199	120	120	120	0	0	1	-360	360;
	219	201	0.02793	0.08496	0.01006	140	140	140	0	0	1	-360	360;
	201	255	0.02702	0.08215	0.00973	140	140	140	0	0	1	-360	360;
	239	202	0.05198	0.09	0.00889	68	68	68	0	0	1	-360	360;
	202	332	0.05992	0.11628	0.01298	68	68	68	0	0	1	-360	360;
	425	203	0.00843	0.02769	0.00279	76	76	76	0	0	1	-360	360;
	203	459	0.0357	0.11719	0.01184	120	120	120	0	0	1	-360	360;
	204	526	0.00132	0.0043	0.00045	140	140	140	0	0	1	-360	360;
	205	527	0.00132	0.0043	0.00045	140	140	140	0	0	1	-360	360;
	224	206	0.00917	0.02983	0.00307	140	140	140	0	0	1	-360	360;
	384	206	0.00785	0.02545	0.00262	140	140	140	0	0	1	-360	360;
	354	207	0.01372	0.04446	0.00461	120	120	120	0	0	1	-360	360;
	208	326	0.02909	0.09438	0.00976	120	120	120	0	0	1	-360	360;
	208	342	0.00355	0.01157	0.00121	137	137	137	0	0	1	-360	360;
	209	211	0.00678	0.02215	0.00224	101	101	101	0	0	1	-360	360;
	334	209	0.00917	0.03	0.00303	101	101	101	0	0	1	-360	360;
	282	210	0.01661	0.04702	0.00505	120	120	120	0	0	1	-360	360;
	353	210	0.01388	0.03628	0.00396	120	120	120	0	0	1	-360	360;
	233	211	0.01909	0.06273	0.00634	101	101	101	0	0	1	-360	360;
	333	211	0.09165	0.15901	0.01657	90	90	90	0	0	1	-360	360;
	386	211	0.02455	0.07967	0.00818	120	120	120	0	0	1	-360	360;
	305	212	0.02975	0.07686	0.00795	91	91	91	0	0	1	-360	360;
	511	212	0.02917	0.07438	0.00774	91	91	91	0	0	1	-360	360;
	333	213	0.02736	0.05992	0.00581	90	90	90	0	0	1	-360	360;
	343	213	0.01504	0.03075	0.00298	90	90	90	0	0	1	-360	360;
	415	213	0.01165	0.04298	0.0039	90	90	90	0	0	1	-360	360;
	458	213	0.00355	0.0114	0.00118	140	140	140	0	0	1	-360	360;
	473	213	0.00289	0.00926	0.00096	140	140	140	0	0	1	-360	360;
	442	214	0.0214	0.07157	0.00699	120	120	120	0	0	1	-360	360;
	533	214	0.03124	0.10421	0.01018	120	120	120	0	0	1	-360	360;
	2249	214	0.03702	0.06719	0.00639	68	68	68	0	0	1	-360	360;
	273	215	0.00107	0.00281	0.00033	120	120	120	0	0	1	-360	360;
	279	215	0.00992	0.02636	0.00299	120	120	120	0	0	1	-360	360;
	447	216	0.00314	0.00942	0.00096	120	120	120	0	0	1	-360	360;
	1120	216	0.03306	0.08099	0.01008	120	120	120	0	0	1	-360	360;
	327	217	0.02686	0.0881	0.0089	90	90	90	0	0	1	-360	360;
	217	346	0.01678	0.05661	0.00575	90	90	90	0	0	1	-360	360;
	219	218	0.02207	0.04273	0.00416	90	90	90	0	0	1	-360	360;
	340	218	0.04992	0.08967	0.00898	90	90	90	0	0	1	-360	360;
	227	219	0.03736	0.06314	0.00687	90	90	90	0	0	1	-360	360;
	437	220	0.00785	0.02388	0.00284	140	140	140	0	0	1	-360	360;
	510	220	0.03165	0.09537	0.01148	140	140	140	0	0	1	-360	360;
	230	221	0.02678	0.0805	0.0097	140	140	140	0	0	1	-360	360;
	240	221	0.01909	0.06198	0.00644	140	140	140	0	0	1	-360	360;
	262	222	0.00868	0.02826	0.00293	91	91	91	0	0	1	-360	360;
	361	222	0.02314	0.07413	0.00785	120	120	120	0	0	1	-360	360;
	372	223	0.01777	0.03124	0.00297	106	106	106	0	0	1	-360	360;
	613	223	0.05661	0.1305	0.01307	90	90	90	0	0	1	-360	360;
	425	224	0.03083	0.10008	0.01034	76	76	76	0	0	1	-360	360;
	225	510	0.01868	0.05678	0.00673	140	140	140	0	0	1	-360	360;
	2218	225	0.03884	0.12645	0.013	68	68	68	0	0	1	-360	360;
	227	226	0.00661	0.01992	0.0024	90	90	90	0	0	1	-360	360;
	226	348	0.02678	0.08058	0.0097	140	140	140	0	0	1	-360	360;
	354	228	0.0195	0.06314	0.00654	120	120	120	0	0	1	-360	360;
	392	228	0.02521	0.08223	0.00841	120	120	120	0	0	1	-360	360;
	301	229	0.04314	0.08281	0.0075	90	90	90	0	0	1	-360	360;
	431	229	0.01066	0.03231	0.00383	120	120	120	0	0	1	-360	360;
	466	230	0.05099	0.15479	0.01833	140	140	140	0	0	1	-360	360;
	231	365	0.03182	0.05851	0.00559	90	90	90	0	0	1	-360	360;
	232	366	0.03256	0.06124	0.00549	90	90	90	0	0	1	-360	360;
	341	233	0.01975	0.06496	0.00656	101	101	101	0	0	1	-360	360;
	354	234	0.00182	0.01273	0.00142	182	182	182	0	0	1	-360	360;
	517	234	0.00116	0.00802	0.0009	182	182	182	0	0	1	-360	360;
	251	235	0.00256	0.02273	0.00199	182	182	182	0	0	1	-360	360;
	355	235	0.00174	0.01207	0.00134	182	182	182	0	0	1	-360	360;
	236	384	0.00347	0.01132	0.00117	140	140	140	0	0	1	-360	360;
	236	385	0.00331	0.01091	0.0011	140	140	140	0	0	1	-360	360;
	373	237	0.01992	0.06438	0.00667	140	140	140	0	0	1	-360	360;
	516	237	0.01587	0.05388	0.00533	140	140	140	0	0	1	-360	360;
	238	361	0.00306	0.01	0.00103	120	120	120	0	0	1	-360	360;
	492	238	0.04405	0.13372	0.01585	120	120	120	0	0	1	-360	360;
	284	239	0.04339	0.07157	0.00774	68	68	68	0	0	1	-360	360;
	340	240	0.06769	0.11901	0.01104	90	90	90	0	0	1	-360	360;
	240	401	0.0043	0.01388	0.00144	140	140	140	0	0	1	-360	360;
%	414	240	0.06107	0.10165	0.01102	90	90	90	0	0	1	-360	360;
	241	287	0.01116	0.03041	0.00329	137	137	137	0	0	1	-360	360;
	503	241	0.00421	0.01165	0.00126	137	137	137	0	0	1	-360	360;
	324	242	0.00851	0.02793	0.00285	120	120	120	0	0	1	-360	360;
	440	242	0.05554	0.12165	0.01065	90	90	90	0	0	1	-360	360;
	306	243	0.00207	0.00529	0.00054	120	120	120	0	0	1	-360	360;
	309	243	0.00868	0.02826	0.00287	120	120	120	0	0	1	-360	360;
	486	244	0.01314	0.03471	0.00364	120	120	120	0	0	1	-360	360;
	520	244	0.00488	0.01579	0.00166	120	120	120	0	0	1	-360	360;
	253	245	0.01876	0.05198	0.00571	120	120	120	0	0	1	-360	360;
	254	245	0.01967	0.06455	0.00652	120	120	120	0	0	1	-360	360;
	281	245	0.00306	0.00959	0.001	120	120	120	0	0	1	-360	360;
	299	245	0.00711	0.02273	0.00242	137	137	137	0	0	1	-360	360;
	396	245	0.01802	0.04636	0.0047	120	120	120	0	0	1	-360	360;
	270	246	0.02091	0.06876	0.00694	120	120	120	0	0	1	-360	360;
	304	246	0.01058	0.02802	0.00316	120	120	120	0	0	1	-360	360;
	339	246	0.02281	0.07446	0.00759	137	137	137	0	0	1	-360	360;
	471	246	0.00463	0.01488	0.00145	120	120	120	0	0	1	-360	360;
	247	427	0.01413	0.03727	0.004	90	90	90	0	0	1	-360	360;
	474	248	0.03033	0.09124	0.01099	140	140	140	0	0	1	-360	360;
	249	294	0.00397	0.01215	0.00138	140	140	140	0	0	1	-360	360;
	474	249	0.02364	0.07149	0.00851	140	140	140	0	0	1	-360	360;
	259	250	0.00901	0.02917	0.00302	140	140	140	0	0	1	-360	360;
	250	349	0.0057	0.01851	0.00193	140	140	140	0	0	1	-360	360;
	252	319	0.00364	0.02504	0.0028	182	182	182	0	0	1	-360	360;
	352	253	0.01711	0.04669	0.00509	120	120	120	0	0	1	-360	360;
	338	254	0.00413	0.01347	0.00139	120	120	120	0	0	1	-360	360;
	336	255	0.0243	0.07975	0.00805	137	137	137	0	0	1	-360	360;
	369	255	0.03124	0.09496	0.01125	140	140	140	0	0	1	-360	360;
	320	256	0.02165	0.04008	0.00386	90	90	90	0	0	1	-360	360;
	257	363	0.00711	0.02281	0.00242	137	137	137	0	0	1	-360	360;
	458	257	0.01372	0.04471	0.0046	137	137	137	0	0	1	-360	360;
	265	258	0.01661	0.04298	0.00429	120	120	120	0	0	1	-360	360;
	1753	258	0.02372	0.06124	0.00624	120	120	120	0	0	1	-360	360;
	436	259	0.00942	0.03041	0.00315	140	140	140	0	0	1	-360	360;
	260	365	0.0062	0.01777	0.00191	120	120	120	0	0	1	-360	360;
	493	260	0.02091	0.05273	0.0058	120	120	120	0	0	1	-360	360;
	261	272	0.00562	0.0181	0.00191	120	120	120	0	0	1	-360	360;
	261	353	0.01198	0.0386	0.00406	120	120	120	0	0	1	-360	360;
	438	262	0.01702	0.05512	0.00581	120	120	120	0	0	1	-360	360;
	323	263	0.02124	0.06975	0.00704	76	76	76	0	0	1	-360	360;
	411	263	0.01174	0.03793	0.00392	91	91	91	0	0	1	-360	360;
	516	264	0.01066	0.01868	0.00186	140	140	140	0	0	1	-360	360;
	537	264	0.03678	0.0638	0.00623	90	90	90	0	0	1	-360	360;
	283	265	0.02702	0.08744	0.00905	140	140	140	0	0	1	-360	360;
	422	265	0.00975	0.0295	0.00355	120	120	120	0	0	1	-360	360;
	408	266	0.03124	0.07942	0.00808	120	120	120	0	0	1	-360	360;
	525	266	0.01711	0.04364	0.00444	120	120	120	0	0	1	-360	360;
	280	267	0.00223	0.00678	0.00082	120	120	120	0	0	1	-360	360;
	267	519	0.00215	0.00645	0.00078	120	120	120	0	0	1	-360	360;
	268	527	0.00504	0.01521	0.00181	140	140	140	0	0	1	-360	360;
	332	269	0.02868	0.08818	0.00783	120	120	120	0	0	1	-360	360;
	511	269	0.03537	0.10331	0.00917	120	120	120	0	0	1	-360	360;
	271	446	0.0243	0.07893	0.00815	120	120	120	0	0	1	-360	360;
	272	353	0.00612	0.01975	0.00208	120	120	120	0	0	1	-360	360;
	304	273	0.00339	0.01124	0.00111	120	120	120	0	0	1	-360	360;
	281	274	0.0057	0.01372	0.00155	120	120	120	0	0	1	-360	360;
	288	274	0.00579	0.01661	0.00179	120	120	120	0	0	1	-360	360;
	275	280	0.00372	0.0119	0.00125	120	120	120	0	0	1	-360	360;
	275	534	0.00306	0.00992	0.00104	120	120	120	0	0	1	-360	360;
	276	299	0.00033	0.00091	0.00011	140	140	140	0	0	1	-360	360;
	292	277	0.00504	0.01612	0.0017	120	120	120	0	0	1	-360	360;
	293	277	0.00264	0.0086	0.0009	120	120	120	0	0	1	-360	360;
	406	277	0.00488	0.0124	0.00121	120	120	120	0	0	1	-360	360;
	526	278	0.00529	0.01645	0.00189	137	137	137	0	0	1	-360	360;
	534	278	0.00058	0.00198	0.00021	140	140	140	0	0	1	-360	360;
	441	279	0.00463	0.01388	0.00167	120	120	120	0	0	1	-360	360;
	472	281	0.00256	0.00826	0.00084	140	140	140	0	0	1	-360	360;
	291	282	0.00223	0.00727	0.00073	120	120	120	0	0	1	-360	360;
	471	282	0.00388	0.01256	0.00132	120	120	120	0	0	1	-360	360;
	350	283	0.01372	0.04455	0.00461	120	120	120	0	0	1	-360	360;
	1787	283	0.02471	0.06281	0.00641	120	120	120	0	0	1	-360	360;
	284	308	0.01826	0.05537	0.00656	137	137	137	0	0	1	-360	360;
	286	285	0.00694	0.02281	0.0023	137	137	137	0	0	1	-360	360;
	286	337	0.02017	0.06405	0.00675	140	140	140	0	0	1	-360	360;
	473	286	0.00694	0.02256	0.00234	90	90	90	0	0	1	-360	360;
	287	318	0.00669	0.01934	0.00207	140	140	140	0	0	1	-360	360;
	352	288	0.01281	0.04116	0.00434	120	120	120	0	0	1	-360	360;
	299	289	0.00769	0.02471	0.00261	137	137	137	0	0	1	-360	360;
	472	289	0.00256	0.00818	0.0008	140	140	140	0	0	1	-360	360;
	294	290	0.00612	0.0124	0.00117	90	90	90	0	0	1	-360	360;
	336	290	0.02	0.0338	0.00368	90	90	90	0	0	1	-360	360;
	429	291	0.00909	0.03058	0.00315	120	120	120	0	0	1	-360	360;
	296	293	8e-05	0.00033	4e-05	140	140	140	0	0	1	-360	360;
	346	294	0.03149	0.10347	0.01045	137	137	137	0	0	1	-360	360;
	524	294	0.02694	0.0819	0.0097	140	140	140	0	0	1	-360	360;
	302	295	0.01099	0.02322	0.00218	120	120	120	0	0	1	-360	360;
	425	295	0.05455	0.09471	0.00914	90	90	90	0	0	1	-360	360;
	537	295	0.05926	0.10455	0.00969	90	90	90	0	0	1	-360	360;
	519	296	0.00736	0.02388	0.00248	137	137	137	0	0	1	-360	360;
	298	297	0.00248	0.00802	0.00082	120	120	120	0	0	1	-360	360;
	297	353	0.02364	0.07736	0.00789	120	120	120	0	0	1	-360	360;
	525	298	0.01413	0.04653	0.0047	120	120	120	0	0	1	-360	360;
	430	300	0.03322	0.10785	0.01114	120	120	120	0	0	1	-360	360;
	658	300	0.05992	0.10149	0.01089	90	90	90	0	0	1	-360	360;
	708	300	0.04231	0.07529	0.00702	90	90	90	0	0	1	-360	360;
	442	303	0.02165	0.0724	0.00706	120	120	120	0	0	1	-360	360;
	2124	303	0.07686	0.09504	0.01016	68	68	68	0	0	1	-360	360;
	345	305	0.02314	0.05587	0.00629	120	120	120	0	0	1	-360	360;
	460	305	0.03942	0.12769	0.01323	140	140	140	0	0	1	-360	360;
	512	305	0.05322	0.13512	0.01374	91	91	91	0	0	1	-360	360;
	493	306	0.0081	0.01959	0.00219	120	120	120	0	0	1	-360	360;
	462	307	0.01967	0.05355	0.00578	120	120	120	0	0	1	-360	360;
	508	307	0.01248	0.03215	0.00319	120	120	120	0	0	1	-360	360;
	349	309	0.01545	0.04488	0.00434	120	120	120	0	0	1	-360	360;
	309	520	0.00413	0.01331	0.0014	140	140	140	0	0	1	-360	360;
	312	310	0.02339	0.0619	0.00629	120	120	120	0	0	1	-360	360;
	420	310	0.00248	0.00777	0.00087	140	140	140	0	0	1	-360	360;
	435	310	0.01967	0.05959	0.00587	120	120	120	0	0	1	-360	360;
	477	310	0.01405	0.04446	0.00484	137	137	137	0	0	1	-360	360;
	312	311	0	0.0001	0	438	438	438	0	0	1	-360	360;
	372	311	0.0686	0.12	0.01149	90	90	90	0	0	1	-360	360;
	323	312	0.02314	0.07521	0.00774	91	91	91	0	0	1	-360	360;
	2245	313	0.0214	0.0676	0.00692	34	34	34	0	0	1	-360	360;
	381	314	0.06091	0.10124	0.01098	68	68	68	0	0	1	-360	360;
	387	314	0.04306	0.07157	0.00754	90	90	90	0	0	1	-360	360;
	315	341	0.01826	0.03157	0.00307	90	90	90	0	0	1	-360	360;
	2249	315	0.05446	0.10132	0.00968	90	90	90	0	0	1	-360	360;
	352	316	0.00339	0.01017	0.00123	120	120	120	0	0	1	-360	360;
	391	316	0.00479	0.01446	0.00175	120	120	120	0	0	1	-360	360;
	317	468	0.01273	0.03562	0.00353	120	120	120	0	0	1	-360	360;
	514	317	0.0005	0.00149	0.00015	120	120	120	0	0	1	-360	360;
	318	467	0.0005	0.00149	0.00015	140	140	140	0	0	1	-360	360;
	319	517	0.00661	0.04521	0.00505	182	182	182	0	0	1	-360	360;
	348	320	0.0157	0.04736	0.0057	140	140	140	0	0	1	-360	360;
	451	321	0.00157	0.00512	0.00053	120	120	120	0	0	1	-360	360;
	454	321	0.00744	0.01901	0.00208	137	137	137	0	0	1	-360	360;
	321	467	0.02364	0.05843	0.0063	120	120	120	0	0	1	-360	360;
	485	321	0.01083	0.02719	0.003	120	120	120	0	0	1	-360	360;
	506	321	0.00438	0.01083	0.00119	140	140	140	0	0	1	-360	360;
	321	530	0.00529	0.01694	0.00178	120	120	120	0	0	1	-360	360;
	351	322	0.00645	0.02025	0.00223	120	120	120	0	0	1	-360	360;
	389	322	0.01223	0.02868	0.00295	120	120	120	0	0	1	-360	360;
	452	322	0.00207	0.00669	0.00071	120	120	120	0	0	1	-360	360;
	455	322	0.00314	0.01975	0.00178	120	120	120	0	0	1	-360	360;
	322	475	0.00397	0.01281	0.00135	120	120	120	0	0	1	-360	360;
	322	478	0.03752	0.09504	0.01036	120	120	120	0	0	1	-360	360;
	490	322	0.01364	0.03397	0.00375	120	120	120	0	0	1	-360	360;
	538	324	0.02264	0.03769	0.00397	90	90	90	0	0	1	-360	360;
	371	325	0.0043	0.01298	0.00157	120	120	120	0	0	1	-360	360;
	375	325	0.01132	0.03777	0.00369	120	120	120	0	0	1	-360	360;
	364	326	0.02868	0.09314	0.00962	120	120	120	0	0	1	-360	360;
	361	328	0.01182	0.03	0.00305	120	120	120	0	0	1	-360	360;
	375	329	0.0162	0.05405	0.00527	120	120	120	0	0	1	-360	360;
	374	330	0.01066	0.03463	0.00358	120	120	120	0	0	1	-360	360;
	360	331	0.00959	0.03099	0.0032	120	120	120	0	0	1	-360	360;
	395	334	0.03884	0.1276	0.01288	120	120	120	0	0	1	-360	360;
	369	335	0.04066	0.07066	0.00682	68	68	68	0	0	1	-360	360;
...